data/raw/ieee33/IEEE33.dss
Clear
New Circuit.IEEE33 basekV=12.66 pu=1.0 phases=3 bus1=1

! Linecode
New Linecode.LC1 nphases=3 R1=0.0922 X1=0.0470 R0=0.2930 X0=0.1970 C1=0 C0=0

! Lines (actual topology approximation)
New Line.L1 bus1=1 bus2=2 phases=3 length=1 units=km linecode=LC1
New Line.L2 bus1=2 bus2=3 phases=3 length=1 units=km linecode=LC1
New Line.L3 bus1=3 bus2=4 phases=3 length=1 units=km linecode=LC1
New Line.L4 bus1=4 bus2=5 phases=3 length=1 units=km linecode=LC1
New Line.L5 bus1=5 bus2=6 phases=3 length=1 units=km linecode=LC1
New Line.L6 bus1=6 bus2=7 phases=3 length=1 units=km linecode=LC1
New Line.L7 bus1=7 bus2=8 phases=3 length=1 units=km linecode=LC1
New Line.L8 bus1=8 bus2=9 phases=3 length=1 units=km linecode=LC1
New Line.L9 bus1=9 bus2=10 phases=3 length=1 units=km linecode=LC1
New Line.L10 bus1=10 bus2=11 phases=3 length=1 units=km linecode=LC1
New Line.L11 bus1=11 bus2=12 phases=3 length=1 units=km linecode=LC1
New Line.L12 bus1=12 bus2=13 phases=3 length=1 units=km linecode=LC1
New Line.L13 bus1=13 bus2=14 phases=3 length=1 units=km linecode=LC1
New Line.L14 bus1=14 bus2=15 phases=3 length=1 units=km linecode=LC1
New Line.L15 bus1=15 bus2=16 phases=3 length=1 units=km linecode=LC1
New Line.L16 bus1=16 bus2=17 phases=3 length=1 units=km linecode=LC1
New Line.L17 bus1=17 bus2=18 phases=3 length=1 units=km linecode=LC1
New Line.L18 bus1=2 bus2=19 phases=3 length=1 units=km linecode=LC1
New Line.L19 bus1=19 bus2=20 phases=3 length=1 units=km linecode=LC1
New Line.L20 bus1=20 bus2=21 phases=3 length=1 units=km linecode=LC1
New Line.L21 bus1=21 bus2=22 phases=3 length=1 units=km linecode=LC1
New Line.L22 bus1=3 bus2=23 phases=3 length=1 units=km linecode=LC1
New Line.L23 bus1=23 bus2=24 phases=3 length=1 units=km linecode=LC1
New Line.L24 bus1=24 bus2=25 phases=3 length=1 units=km linecode=LC1
New Line.L25 bus1=6 bus2=26 phases=3 length=1 units=km linecode=LC1
New Line.L26 bus1=26 bus2=27 phases=3 length=1 units=km linecode=LC1
New Line.L27 bus1=27 bus2=28 phases=3 length=1 units=km linecode=LC1
New Line.L28 bus1=28 bus2=29 phases=3 length=1 units=km linecode=LC1
New Line.L29 bus1=29 bus2=30 phases=3 length=1 units=km linecode=LC1
New Line.L30 bus1=30 bus2=31 phases=3 length=1 units=km linecode=LC1
New Line.L31 bus1=31 bus2=32 phases=3 length=1 units=km linecode=LC1
New Line.L32 bus1=32 bus2=33 phases=3 length=1 units=km linecode=LC1

! Loads (distributed realistically)
New Load.L2  bus1=2  kV=12.66 kW=100 kvar=60
New Load.L3  bus1=3  kV=12.66 kW=90  kvar=40
New Load.L4  bus1=4  kV=12.66 kW=120 kvar=80
New Load.L5  bus1=5  kV=12.66 kW=60  kvar=30
New Load.L6  bus1=6  kV=12.66 kW=80  kvar=50
New Load.L7  bus1=7  kV=12.66 kW=70  kvar=40
New Load.L8  bus1=8  kV=12.66 kW=110 kvar=60
New Load.L9  bus1=9  kV=12.66 kW=90  kvar=50
New Load.L10 bus1=10 kV=12.66 kW=50  kvar=30
New Load.L11 bus1=11 kV=12.66 kW=60  kvar=35
New Load.L12 bus1=12 kV=12.66 kW=60  kvar=35
New Load.L13 bus1=13 kV=12.66 kW=120 kvar=80
New Load.L14 bus1=14 kV=12.66 kW=60  kvar=30
New Load.L15 bus1=15 kV=12.66 kW=60  kvar=20
New Load.L16 bus1=16 kV=12.66 kW=60  kvar=20
New Load.L17 bus1=17 kV=12.66 kW=90  kvar=40
New Load.L18 bus1=18 kV=12.66 kW=90  kvar=40
New Load.L19 bus1=19 kV=12.66 kW=90  kvar=40
New Load.L20 bus1=20 kV=12.66 kW=90  kvar=40
New Load.L21 bus1=21 kV=12.66 kW=90  kvar=40
New Load.L22 bus1=22 kV=12.66 kW=90  kvar=40
New Load.L23 bus1=23 kV=12.66 kW=90  kvar=50
New Load.L24 bus1=24 kV=12.66 kW=420 kvar=200
New Load.L25 bus1=25 kV=12.66 kW=420 kvar=200
New Load.L26 bus1=26 kV=12.66 kW=60  kvar=25
New Load.L27 bus1=27 kV=12.66 kW=60  kvar=25
New Load.L28 bus1=28 kV=12.66 kW=60  kvar=20
New Load.L29 bus1=29 kV=12.66 kW=120 kvar=70
New Load.L30 bus1=30 kV=12.66 kW=200 kvar=600
New Load.L31 bus1=31 kV=12.66 kW=150 kvar=70
New Load.L32 bus1=32 kV=12.66 kW=210 kvar=100
New Load.L33 bus1=33 kV=12.66 kW=60  kvar=40

Solve